Circuit: * G:\Meu Drive\_GÁS INFINITO\ENGENHARIA ELÉTRICA\Eletrônica de Potência\lab\EXPERIMENTOS\Draft1.asc

Limiting rise time of source v2 to 1.07333e-006
Limiting fall time of source v2 to 1.07333e-006
Direct Newton iteration for .op point succeeded.

Date: Mon Aug 15 10:27:48 2022
Total elapsed time: 7.358 seconds.

tnom = 27
temp = 27
method = modified trap
totiter = 4182946
traniter = 4182940
tranpoints = 1187426
accept = 848890
rejected = 338536
matrix size = 14
fillins = 2
solver = Normal
Matrix Compiler1: 804 bytes object code size  0.1/0.1/[0.1]
Matrix Compiler2: off  [0.1]/0.1/0.1

