Circuit: * G:\Meu Drive\_GÁS INFINITO\ENGENHARIA ELÉTRICA\Eletrônica de Potência\lab\EXPERIMENTOS\EXP07_1.asc

Direct Newton iteration failed to find .op point.  (Use ".option noopiter" to skip.)
Starting Gmin stepping
Gmin = 10
Gmin = 1.07374
Gmin = 0.115292
Gmin = 0.0123794
Gmin = 0.00132923
Gmin = 0.000142725
Gmin = 1.5325e-005
Gmin = 1.6455e-006
Gmin = 1.76685e-007
Gmin = 1.89714e-008
Gmin = 2.03704e-009
Gmin = 2.18725e-010
Gmin = 2.34854e-011
Gmin = 2.52173e-012
Gmin = 2.70769e-013
Gmin = 0
Gmin stepping succeeded in finding the operating point.


Date: Fri Aug 12 08:49:56 2022
Total elapsed time: 8.263 seconds.

tnom = 27
temp = 27
method = modified trap
totiter = 1724695
traniter = 1724192
tranpoints = 438964
accept = 318048
rejected = 120916
matrix size = 43
fillins = 29
solver = Normal
Matrix Compiler1: 3.71 KB object code size  0.5/0.3/[0.2]
Matrix Compiler2: 3.90 KB object code size  0.5/0.5/[0.3]

